data_image0
_chemical_formula_structural       Li15P12S29
_chemical_formula_sum              "Li15 P12 S29"
_cell_length_a       7.880943788527531
_cell_length_b       11.487840146245954
_cell_length_c       12.795717239379883
_cell_angle_alpha    89.97021324767383
_cell_angle_beta     90.0489350602014
_cell_angle_gamma    99.86761913165728

_space_group_name_H-M_alt    "P 1"
_space_group_IT_number       1

loop_
  _space_group_symop_operation_xyz
  'x, y, z'

loop_
  _atom_site_type_symbol
  _atom_site_label
  _atom_site_symmetry_multiplicity
  _atom_site_fract_x
  _atom_site_fract_y
  _atom_site_fract_z
  _atom_site_occupancy
  Li  Li1       1.0  0.6928587555885315  0.6780411005020142  0.5456798076629639  1.0000
  Li  Li2       1.0  0.33649879693984985  0.9088316559791565  0.7594019770622253  1.0000
  Li  Li3       1.0  0.9725548624992371  0.45095953345298767  0.5421819686889648  1.0000
  Li  Li4       1.0  0.6950366497039795  0.16572879254817963  0.2819336950778961  1.0000
  Li  Li5       1.0  0.04600436985492706  0.7084567546844482  0.25919511914253235  1.0000
  Li  Li6       1.0  0.6773204207420349  0.4369613826274872  0.7642354965209961  1.0000
  Li  Li7       1.0  0.8807262182235718  0.205531045794487  0.7541487216949463  1.0000
  Li  Li8       1.0  0.5366548895835876  0.935042142868042  0.5292521715164185  1.0000
  Li  Li9       1.0  0.6853259801864624  0.6741422414779663  0.036286648362874985  1.0000
  Li  Li10      1.0  0.03400811925530434  0.9384254813194275  0.5269178152084351  1.0000
  Li  Li11      1.0  0.3627414405345917  0.9017630219459534  0.03272315859794617  1.0000
  Li  Li12      1.0  0.4969712495803833  0.18873313069343567  0.02034461684525013  1.0000
  Li  Li13      1.0  0.8223686218261719  0.9058477878570557  0.7750734090805054  1.0000
  Li  Li14      1.0  0.004726886749267578  0.41186267137527466  0.2573581039905548  1.0000
  Li  Li15      1.0  0.4960249066352844  0.41642606258392334  0.24237805604934692  1.0000
  P   P1        1.0  0.2673783302307129  0.14527931809425354  0.2544395923614502  1.0000
  P   P2        1.0  0.47770795226097107  0.676273763179779  0.7904435992240906  1.0000
  P   P3        1.0  0.26561492681503296  0.6496859788894653  0.46010321378707886  1.0000
  P   P4        1.0  0.8853330612182617  0.18380235135555267  0.5152559280395508  1.0000
  P   P5        1.0  0.4911646544933319  0.6993327140808105  0.270224928855896  1.0000
  P   P6        1.0  0.8162462711334229  0.9325898289680481  0.2840561866760254  1.0000
  P   P7        1.0  0.30747872591018677  0.4508002698421478  0.9578872323036194  1.0000
  P   P8        1.0  0.8079094290733337  0.4341906011104584  0.0444047525525093  1.0000
  P   P9        1.0  0.456546813249588  0.18855462968349457  0.5059711337089539  1.0000
  P   P10       1.0  0.38920918107032776  0.16228094696998596  0.7446114420890808  1.0000
  P   P11       1.0  0.9776446223258972  0.17484040558338165  0.003842667443677783  1.0000
  P   P12       1.0  0.9574838280677795  0.6586145162582397  0.7767301797866821  1.0000
  S   S1        1.0  0.30920469760894775  0.7809834480285645  0.19633764028549194  1.0000
  S   S2        1.0  0.4251081645488739  0.07795752584934235  0.3738635778427124  1.0000
  S   S3        1.0  0.18751636147499084  0.30196332931518555  0.960029661655426  1.0000
  S   S4        1.0  0.02977420575916767  0.5665613412857056  0.3933316171169281  1.0000
  S   S5        1.0  0.42012110352516174  0.5287225246429443  0.08622247725725174  1.0000
  S   S6        1.0  0.5256167054176331  0.29075315594673157  0.6900576949119568  1.0000
  S   S7        1.0  0.823539137840271  0.5666048526763916  0.6451699733734131  1.0000
  S   S8        1.0  0.9029366970062256  0.07059506326913834  0.12562040984630585  1.0000
  S   S9        1.0  0.29988789558410645  0.06260904669761658  0.612165093421936  1.0000
  S   S10       1.0  0.7100540399551392  0.7953440546989441  0.1929304152727127  1.0000
  S   S11       1.0  0.7214670777320862  0.32530656456947327  0.1895584911108017  1.0000
  S   S12       1.0  0.2207116186618805  0.8081972599029541  0.46274465322494507  1.0000
  S   S13       1.0  0.3016487956047058  0.5512293577194214  0.8193917870521545  1.0000
  S   S14       1.0  0.32310810685157776  0.07217451930046082  0.12666037678718567  1.0000
  S   S15       1.0  0.5602235198020935  0.7966632843017578  0.6866207718849182  1.0000
  S   S16       1.0  0.7156490087509155  0.2959265410900116  0.45740264654159546  1.0000
  S   S17       1.0  0.8110934495925903  0.5666967630386353  0.8913075923919678  1.0000
  S   S18       1.0  0.06715749949216843  0.8058438301086426  0.7428461313247681  1.0000
  S   S19       1.0  0.9465178847312927  0.07343407720327377  0.37331295013427734  1.0000
  S   S20       1.0  0.7244908809661865  0.302808552980423  0.9478702545166016  1.0000
  S   S21       1.0  0.7110700011253357  0.8321669697761536  0.41629666090011597  1.0000
  S   S22       1.0  0.9257864356040955  0.5660179853439331  0.12088285386562347  1.0000
  S   S23       1.0  0.4527205228805542  0.5709959864616394  0.3844703435897827  1.0000
  S   S24       1.0  0.2164870947599411  0.30101707577705383  0.2719450294971466  1.0000
  S   S25       1.0  0.07079830765724182  0.295732706785202  0.6191731095314026  1.0000
  S   S26       1.0  0.8011713624000549  0.056496381759643555  0.6189993023872375  1.0000
  S   S27       1.0  0.9212162494659424  0.07036814093589783  0.8838988542556763  1.0000
  S   S28       1.0  0.41311362385749817  0.06752794981002808  0.8660596609115601  1.0000
  S   S29       1.0  0.5644770264625549  0.7962990403175354  0.9193622469902039  1.0000
